*SPEF "IEEE 1481.1999"
*DESIGN "adder"
*DATE "12:26:58 Saturday May 30, 2020"
*VENDOR "unknown"
*PROGRAM "qrouter"
*VERSION "unknown"
*DESIGN_FLOW "qflow"
*DIVIDER /
*DELIMITER :
*BUS_DELIMITER <>
*T_UNIT 1 PS
*C_UNIT 1 FF
*R_UNIT 1 OHM
*L_UNIT 1 HENRY

*NAME_MAP
*1 dot0_Ghl
*2 NAND2X1_2
*3 NAND2X1_7
*4 NAND2X1_11
*5 XOR2X1_2
*6 dot3_Ghl
*7 NAND2X1_8
*8 XOR2X1_4
*9 NAND2X1_9
*10 NAND2X1_13
*11 dot0_Gl
*12 NOR2X1_1
*13 XOR2X1_1
*14 NAND2X1_1
*15 dot1_Gl
*16 NOR2X1_3
*17 INVX1_6
*18 NAND2X1_3
*19 dot1_Ph
*20 NAND2X1_17
*21 AND2X2_1
*22 NAND2X1_3
*23 dot1_Pl
*24 NAND2X1_16
*25 NAND2X1_11
*26 AND2X2_1
*27 dot2_Gl
*28 NOR2X1_5
*29 INVX1_7
*30 NAND2X1_5
*31 dot2_Ph
*32 NAND2X1_19
*33 NAND2X1_5
*34 AND2X2_2
*35 dot2_Pl
*36 NAND2X1_18
*37 AND2X2_2
*38 NAND2X1_13
*39 y0
*40 INVX1_8
*41 XOR2X1_6
*42 x0
*43 INVX1_9
*44 XOR2X1_6
*45 y1
*46 INVX1_10
*47 XOR2X1_7
*48 _23_
*49 INVX1_10
*50 NAND2X1_15
*51 NOR2X1_2
*52 x1
*53 INVX1_11
*54 XOR2X1_7
*55 _24_
*56 INVX1_11
*57 NAND2X1_15
*58 NOR2X1_2
*59 y2
*60 XOR2X1_8
*61 INVX1_12
*62 _25_
*63 INVX1_12
*64 NOR2X1_3
*65 NAND2X1_16
*66 x2
*67 INVX1_13
*68 XOR2X1_8
*69 _26_
*70 INVX1_13
*71 NOR2X1_3
*72 NAND2X1_16
*73 y3
*74 XOR2X1_9
*75 INVX1_14
*76 _27_
*77 INVX1_14
*78 NOR2X1_4
*79 NAND2X1_17
*80 x3
*81 INVX1_15
*82 XOR2X1_9
*83 _28_
*84 INVX1_15
*85 NOR2X1_4
*86 NAND2X1_17
*87 y4
*88 XOR2X1_10
*89 INVX1_16
*90 _29_
*91 INVX1_16
*92 NOR2X1_5
*93 NAND2X1_18
*94 x4
*95 INVX1_17
*96 XOR2X1_10
*97 _30_
*98 INVX1_17
*99 NOR2X1_5
*100 NAND2X1_18
*101 y5
*102 XOR2X1_11
*103 INVX1_18
*104 _31_
*105 INVX1_18
*106 NOR2X1_6
*107 NAND2X1_19
*108 x5
*109 XOR2X1_11
*110 INVX1_19
*111 _32_
*112 INVX1_19
*113 NOR2X1_6
*114 NAND2X1_19
*115 h[0]
*116 XOR2X1_7
*117 XOR2X1_1
*118 _1_
*119 XOR2X1_1
*120 BUFX2_2
*121 h[1]
*122 XOR2X1_8
*123 XOR2X1_2
*124 _2_
*125 XOR2X1_2
*126 BUFX2_3
*127 h[2]
*128 XOR2X1_9
*129 XOR2X1_3
*130 dot5_Ghl
*131 NAND2X1_12
*132 XOR2X1_3
*133 _3_
*134 XOR2X1_3
*135 BUFX2_4
*136 h[3]
*137 XOR2X1_10
*138 XOR2X1_4
*139 _4_
*140 XOR2X1_4
*141 BUFX2_5
*142 h[4]
*143 XOR2X1_11
*144 XOR2X1_5
*145 dot6_Ghl
*146 NAND2X1_14
*147 XOR2X1_5
*148 _5_
*149 XOR2X1_5
*150 BUFX2_6
*151 _0_
*152 XOR2X1_6
*153 BUFX2_1
*154 s0
*155 BUFX2_1
*156 s1
*157 BUFX2_2
*158 s2
*159 BUFX2_3
*160 s3
*161 BUFX2_4
*162 s4
*163 BUFX2_5
*164 s5
*165 BUFX2_6
*166 _6_
*167 NAND2X1_10
*168 BUFX2_7
*169 ov
*170 BUFX2_7
*171 dot0_Gh
*172 NOR2X1_2
*173 INVX1_1
*174 _7_
*175 INVX1_1
*176 NAND2X1_2
*177 dot0_Ph
*178 NAND2X1_15
*179 NAND2X1_1
*180 _8_
*181 NAND2X1_1
*182 NAND2X1_2
*183 dot1_Gh
*184 NOR2X1_4
*185 INVX1_2
*186 _9_
*187 INVX1_2
*188 NAND2X1_4
*189 _10_
*190 NAND2X1_3
*191 NAND2X1_4
*192 dot1_Ghl
*193 NAND2X1_4
*194 INVX1_4
*195 dot1_Phl
*196 AND2X2_1
*197 NAND2X1_7
*198 dot2_Gh
*199 NOR2X1_6
*200 INVX1_3
*201 _11_
*202 INVX1_3
*203 NAND2X1_6
*204 _12_
*205 NAND2X1_5
*206 NAND2X1_6
*207 dot2_Ghl
*208 NAND2X1_6
*209 INVX1_5
*210 dot2_Phl
*211 AND2X2_2
*212 NAND2X1_9
*213 _13_
*214 INVX1_4
*215 NAND2X1_8
*216 _14_
*217 NAND2X1_7
*218 NAND2X1_8
*219 _15_
*220 INVX1_5
*221 NAND2X1_10
*222 _16_
*223 NAND2X1_9
*224 NAND2X1_10
*225 _17_
*226 INVX1_6
*227 NAND2X1_12
*228 _18_
*229 NAND2X1_11
*230 NAND2X1_12
*231 _19_
*232 INVX1_7
*233 NAND2X1_14
*234 _20_
*235 NAND2X1_13
*236 NAND2X1_14
*237 _21_
*238 INVX1_8
*239 NOR2X1_1
*240 _22_
*241 INVX1_9
*242 NOR2X1_1

*PORTS
*39 I
*42 I
*45 I
*52 I
*59 I
*66 I
*73 I
*80 I
*87 I
*94 I
*101 I
*108 I
*154 O
*156 O
*158 O
*160 O
*162 O
*164 O
*169 O

*D_NET *1 0.0023688
*CONN
*I *2:Y O *D NAND2X1
*I *3:A I *L 0.0214197
*I *4:A I *L 0.0214197
*I *5:B I *L 0.0637104
*CAP
1 1_1 0.0004752
2 1_2 0.0003816
3 1_3 0.000396
4 1_4 0.0001296
5 1_5 0.0009864
*RES
1 *2:Y 1_1 3.3
2 1_1 1_2 1.46
3 1_2 *3:A 0
4 1_1 1_3 0.88
5 1_3 1_4 0.9
6 1_4 *4:A 0
7 1_3 1_5 4.64
8 1_5 *5:B 0
*END
*D_NET *6 0.0013248
*CONN
*I *7:Y O *D NAND2X1
*I *8:B I *L 0.0637104
*I *9:A I *L 0.0214197
*I *10:A I *L 0.0214197
*CAP
1 6_1 0.0002592
2 6_2 0.0001728
3 6_3 0.000396
4 6_4 0.0001728
5 6_5 0.000324
*RES
1 *7:Y 6_1 1.8
2 6_1 6_2 1.2
3 6_2 *8:B 0
4 6_1 6_3 0.88
5 6_3 6_4 1.2
6 6_4 *9:A 0
7 6_3 6_5 1.74
8 6_5 *10:A 0
*END
*D_NET *11 0.00151668
*CONN
*I *12:Y O *D NOR2X1
*I *13:B I *L 0.0637104
*I *14:A I *L 0.0214197
*CAP
1 11_1 0.0003744
2 11_2 0.00040788
3 11_3 0.0007344
*RES
1 *12:Y 11_1 1.24
2 11_1 11_2 1.66
3 11_2 *13:B 0
4 11_1 11_3 2.04
5 11_3 *14:A 0
*END
*D_NET *15 0.00145728
*CONN
*I *16:Y O *D NOR2X1
*I *17:A I *L 0.0161217
*I *18:A I *L 0.0214197
*CAP
1 15_1 0.00088128
2 15_2 0.0002304
3 15_3 0.0003456
*RES
1 *16:Y 15_1 5.4
2 15_1 15_2 0.92
3 15_2 *17:A 0
4 15_1 15_3 1.2
5 15_3 *18:A 0
*END
*D_NET *19 0.00122544
*CONN
*I *20:Y O *D NAND2X1
*I *21:A I *L 0.021674
*I *22:B I *L 0.0216455
*CAP
1 19_1 0.00091584
2 19_2 0.00018
3 19_3 0.0001296
*RES
1 *20:Y 19_1 4.92
2 19_1 19_2 0.4
3 19_2 *21:A 0
4 19_1 19_3 0.9
5 19_3 *22:B 0
*END
*D_NET *23 0.00157536
*CONN
*I *24:Y O *D NAND2X1
*I *25:B I *L 0.0216455
*I *26:B I *L 0.0214177
*CAP
1 23_1 0.0003024
2 23_2 0.000216
3 23_3 0.00105696
*RES
1 *24:Y 23_1 2.1
2 23_1 23_2 1.5
3 23_2 *25:B 0
4 23_1 23_3 5.98
5 23_3 *26:B 0
*END
*D_NET *27 0.001008
*CONN
*I *28:Y O *D NOR2X1
*I *29:A I *L 0.0161217
*I *30:A I *L 0.0214197
*CAP
1 27_1 0.0006624
2 27_2 4.32e-05
3 27_3 0.0003024
*RES
1 *28:Y 27_1 1.88
2 27_1 27_2 0.3
3 27_2 *29:A 0
4 27_2 27_3 2.1
5 27_3 *30:A 0
*END
*D_NET *31 0.0008298
*CONN
*I *32:Y O *D NAND2X1
*I *33:B I *L 0.0216455
*I *34:A I *L 0.021674
*CAP
1 31_1 0.000288
2 31_2 0.0001314
3 31_3 0.0004104
*RES
1 *32:Y 31_1 0.64
2 31_1 31_2 0.7
3 31_2 *33:B 0
4 31_1 31_3 1.32
5 31_3 *34:A 0
*END
*D_NET *35 0.00081072
*CONN
*I *36:Y O *D NAND2X1
*I *37:B I *L 0.0214177
*I *38:B I *L 0.0216455
*CAP
1 35_1 0.0002664
2 35_2 0.00054432
3 35_3 0
*RES
1 *36:Y 35_1 1
2 35_1 35_2 3.78
3 35_2 *37:B 0
4 35_1 35_3 0
5 35_3 *38:B 0
*END
*D_NET *39 0.00072
*CONN
*P *39 O
*I *40:A I *L 0.0161217
*I *41:A I *L 0.0535547
*CAP
1 39_1 0.0001296
2 39_2 0.0001296
3 39_3 0.0004608
*RES
1 *39 39_1 0.9
2 39_1 39_2 0.9
3 39_2 *40:A 0
4 39_1 39_3 1.84
5 39_3 *41:A 0
*END
*D_NET *42 0.00070272
*CONN
*P *42 O
*I *43:A I *L 0.0161217
*I *44:B I *L 0.0637104
*CAP
1 42_1 0.00028512
2 42_2 4.32e-05
3 42_3 0.0003744
*RES
1 *42 42_1 1.98
2 42_1 42_2 0.3
3 42_2 *43:A 0
4 42_2 42_3 1.24
5 42_3 *44:B 0
*END
*D_NET *45 0.000828
*CONN
*P *45 O
*I *46:A I *L 0.0161217
*I *47:A I *L 0.0535547
*CAP
1 45_1 0.0001296
2 45_2 0.0001296
3 45_3 0.0005688
*RES
1 *45 45_1 0.9
2 45_1 45_2 0.9
3 45_2 *46:A 0
4 45_1 45_3 2.08
5 45_3 *47:A 0
*END
*D_NET *48 0.00051264
*CONN
*I *49:Y O *D INVX1
*I *50:A I *L 0.0214197
*I *51:A I *L 0.0270218
*CAP
1 48_1 0.00013824
2 48_2 0.0003744
*RES
1 *49:Y 48_1 0.48
2 48_1 *50:A 0
3 48_1 48_2 1.24
4 48_2 *51:A 0
*END
*D_NET *52 0.0011088
*CONN
*P *52 O
*I *53:A I *L 0.0161217
*I *54:B I *L 0.0637104
*CAP
1 52_1 0.0001296
2 52_2 0.0001296
3 52_3 0.0008496
*RES
1 *52 52_1 0.9
2 52_1 52_2 0.9
3 52_2 *53:A 0
4 52_1 52_3 4.54
5 52_3 *54:B 0
*END
*D_NET *55 0.000648
*CONN
*I *56:Y O *D INVX1
*I *57:B I *L 0.0216455
*I *58:B I *L 0.0276513
*CAP
1 55_1 0.00033696
2 55_2 0.00031104
*RES
1 *56:Y 55_1 1.62
2 55_1 *57:B 0
3 55_1 55_2 1.08
4 55_2 *58:B 0
*END
*D_NET *59 0.00117072
*CONN
*P *59 O
*I *60:A I *L 0.0535547
*I *61:A I *L 0.0161217
*CAP
1 59_1 0.00032832
2 59_2 4.32e-05
3 59_3 0.0007992
*RES
1 *59 59_1 2.28
2 59_1 59_2 0.3
3 59_2 *60:A 0
4 59_2 59_3 5.04
5 59_3 *61:A 0
*END
*D_NET *62 0.0013464
*CONN
*I *63:Y O *D INVX1
*I *64:A I *L 0.0270218
*I *65:A I *L 0.0214197
*CAP
1 62_1 0.0005688
2 62_2 0.0003024
3 62_3 0.0004752
*RES
1 *63:Y 62_1 3.1
2 62_1 62_2 2.1
3 62_2 *64:A 0
4 62_1 62_3 2.28
5 62_3 *65:A 0
*END
*D_NET *66 0.000873
*CONN
*P *66 O
*I *67:A I *L 0.0161217
*I *68:B I *L 0.0637104
*CAP
1 66_1 0.0002376
2 66_2 0.0001746
3 66_3 0.0004608
*RES
1 *66 66_1 1.14
2 66_1 66_2 1
3 66_2 *67:A 0
4 66_1 66_3 1.84
5 66_3 *68:B 0
*END
*D_NET *69 0.00075744
*CONN
*I *70:Y O *D INVX1
*I *71:B I *L 0.0276513
*I *72:B I *L 0.0216455
*CAP
1 69_1 0.0004464
2 69_2 0.00031104
*RES
1 *70:Y 69_1 2.42
2 69_1 *71:B 0
3 69_1 69_2 1.08
4 69_2 *72:B 0
*END
*D_NET *73 0.00085536
*CONN
*P *73 O
*I *74:A I *L 0.0535547
*I *75:A I *L 0.0161217
*CAP
1 73_1 0.00045792
2 73_2 0.00013824
3 73_3 0.0002592
*RES
1 *73 73_1 3.18
2 73_1 73_2 0.48
3 73_2 *74:A 0
4 73_1 73_3 0.9
5 73_3 *75:A 0
*END
*D_NET *76 0.0005328
*CONN
*I *77:Y O *D INVX1
*I *78:A I *L 0.0270218
*I *79:A I *L 0.0214197
*CAP
1 76_1 0.0002304
2 76_2 0
3 76_3 0.0003024
*RES
1 *77:Y 76_1 0.92
2 76_1 76_2 0
3 76_2 *78:A 0
4 76_1 76_3 1.08
5 76_3 *79:A 0
*END
*D_NET *80 0.0012168
*CONN
*P *80 O
*I *81:A I *L 0.0161217
*I *82:B I *L 0.0637104
*CAP
1 80_1 0.0001728
2 80_2 0.0005976
3 80_3 0.0004464
*RES
1 *80 80_1 1.2
2 80_1 80_2 2.96
3 80_2 *81:A 0
4 80_1 80_3 2.42
5 80_3 *82:B 0
*END
*D_NET *83 0.00064368
*CONN
*I *84:Y O *D INVX1
*I *85:B I *L 0.0276513
*I *86:B I *L 0.0216455
*CAP
1 83_1 0.00033264
2 83_2 0.00031104
*RES
1 *84:Y 83_1 1.32
2 83_1 *85:B 0
3 83_1 83_2 1.08
4 83_2 *86:B 0
*END
*D_NET *87 0.0018648
*CONN
*P *87 O
*I *88:A I *L 0.0535547
*I *89:A I *L 0.0161217
*CAP
1 87_1 0.000972
2 87_2 0.0006624
3 87_3 0.0002304
*RES
1 *87 87_1 5.22
2 87_1 87_2 2.9
3 87_2 *88:A 0
4 87_1 87_3 0.92
5 87_3 *89:A 0
*END
*D_NET *90 0.00077328
*CONN
*I *91:Y O *D INVX1
*I *92:A I *L 0.0270218
*I *93:A I *L 0.0214197
*CAP
1 90_1 0.00046224
2 90_2 0.00031104
*RES
1 *91:Y 90_1 2.22
2 90_1 *92:A 0
3 90_1 90_2 1.08
4 90_2 *93:A 0
*END
*D_NET *94 0.00178128
*CONN
*P *94 O
*I *95:A I *L 0.0161217
*I *96:B I *L 0.0637104
*CAP
1 94_1 0.0002592
2 94_2 0.0009432
3 94_3 0.00057888
*RES
1 *94 94_1 1.8
2 94_1 94_2 4.34
3 94_2 *95:A 0
4 94_1 94_3 2.7
5 94_3 *96:B 0
*END
*D_NET *97 0.00104544
*CONN
*I *98:Y O *D INVX1
*I *99:B I *L 0.0276513
*I *100:B I *L 0.0216455
*CAP
1 97_1 0.00037584
2 97_2 8.64e-05
3 97_3 0.0005832
*RES
1 *98:Y 97_1 1.62
2 97_1 97_2 0.6
3 97_2 *99:B 0
4 97_1 97_3 3.54
5 97_3 *100:B 0
*END
*D_NET *101 0.0005886
*CONN
*P *101 O
*I *102:A I *L 0.0535547
*I *103:A I *L 0.0161217
*CAP
1 101_1 0.000243
2 101_2 0.0001296
3 101_3 0.000216
*RES
1 *101 101_1 0.54
2 101_1 101_2 0.9
3 101_2 *102:A 0
4 101_1 101_3 1.5
5 101_3 *103:A 0
*END
*D_NET *104 0.00061344
*CONN
*I *105:Y O *D INVX1
*I *106:A I *L 0.0270218
*I *107:A I *L 0.0214197
*CAP
1 104_1 0.0003024
2 104_2 0.00031104
*RES
1 *105:Y 104_1 1.08
2 104_1 *106:A 0
3 104_1 104_2 1.08
4 104_2 *107:A 0
*END
*D_NET *108 0.0008838
*CONN
*P *108 O
*I *109:B I *L 0.0637104
*I *110:A I *L 0.0161217
*CAP
1 108_1 0.000315
2 108_2 0.0004392
3 108_3 0.0001296
*RES
1 *108 108_1 0.7
2 108_1 108_2 2.2
3 108_2 *109:B 0
4 108_1 108_3 0.9
5 108_3 *110:A 0
*END
*D_NET *111 0.00064368
*CONN
*I *112:Y O *D INVX1
*I *113:B I *L 0.0276513
*I *114:B I *L 0.0216455
*CAP
1 111_1 0.00031104
2 111_2 0.00033264
*RES
1 *112:Y 111_1 1.08
2 111_1 *113:B 0
3 111_1 111_2 1.8
4 111_2 *114:B 0
*END
*D_NET *115 0.0004824
*CONN
*I *116:Y O *D XOR2X1
*I *117:A I *L 0.0535547
*CAP
1 115_1 0.0004824
*RES
1 *116:Y 115_1 2.5
2 115_1 *117:A 0
*END
*D_NET *118 0.00055296
*CONN
*I *119:Y O *D XOR2X1
*I *120:A I *L 0.0161375
*CAP
1 118_1 0.00055296
*RES
1 *119:Y 118_1 1.92
2 118_1 *120:A 0
*END
*D_NET *121 0.0004824
*CONN
*I *122:Y O *D XOR2X1
*I *123:A I *L 0.0535547
*CAP
1 121_1 0.0004824
*RES
1 *122:Y 121_1 1.48
2 121_1 *123:A 0
*END
*D_NET *124 0.00117072
*CONN
*I *125:Y O *D XOR2X1
*I *126:A I *L 0.0161375
*CAP
1 124_1 0.00117072
*RES
1 *125:Y 124_1 7.62
2 124_1 *126:A 0
*END
*D_NET *127 0.00111024
*CONN
*I *128:Y O *D XOR2X1
*I *129:A I *L 0.0535547
*CAP
1 127_1 0.00111024
*RES
1 *128:Y 127_1 6.72
2 127_1 *129:A 0
*END
*D_NET *130 0.0004824
*CONN
*I *131:Y O *D NAND2X1
*I *132:B I *L 0.0637104
*CAP
1 130_1 0.0004824
*RES
1 *131:Y 130_1 2.5
2 130_1 *132:B 0
*END
*D_NET *133 0.00053064
*CONN
*I *134:Y O *D XOR2X1
*I *135:A I *L 0.0161375
*CAP
1 133_1 0.00053064
*RES
1 *134:Y 133_1 1.76
2 133_1 *135:A 0
*END
*D_NET *136 0.00055296
*CONN
*I *137:Y O *D XOR2X1
*I *138:A I *L 0.0535547
*CAP
1 136_1 0.00055296
*RES
1 *137:Y 136_1 3.84
2 136_1 *138:A 0
*END
*D_NET *139 0.0003456
*CONN
*I *140:Y O *D XOR2X1
*I *141:A I *L 0.0161375
*CAP
1 139_1 0.0003456
*RES
1 *140:Y 139_1 1.2
2 139_1 *141:A 0
*END
*D_NET *142 0.000378
*CONN
*I *143:Y O *D XOR2X1
*I *144:A I *L 0.0535547
*CAP
1 142_1 0.000378
*RES
1 *143:Y 142_1 0.84
2 142_1 *144:A 0
*END
*D_NET *145 0.000396
*CONN
*I *146:Y O *D NAND2X1
*I *147:B I *L 0.0637104
*CAP
1 145_1 0.000396
*RES
1 *146:Y 145_1 1.9
2 145_1 *147:B 0
*END
*D_NET *148 0.0003528
*CONN
*I *149:Y O *D XOR2X1
*I *150:A I *L 0.0161375
*CAP
1 148_1 0.0003528
*RES
1 *149:Y 148_1 1.6
2 148_1 *150:A 0
*END
*D_NET *151 0.00028224
*CONN
*I *152:Y O *D XOR2X1
*I *153:A I *L 0.0161375
*CAP
1 151_1 0.00028224
*RES
1 *152:Y 151_1 0.8
2 151_1 *153:A 0
*END
*D_NET *154 0.0003294
*CONN
*I *155:Y O *D BUFX2
*P *154 I
*CAP
1 154_1 0.0003294
*RES
1 *155:Y 154_1 1.14
2 154_1 *154 0
*END
*D_NET *156 0.00032832
*CONN
*I *157:Y O *D BUFX2
*P *156 I
*CAP
1 156_1 0.00032832
*RES
1 *157:Y 156_1 2.28
2 156_1 *156 0
*END
*D_NET *158 0.00053676
*CONN
*I *159:Y O *D BUFX2
*P *158 I
*CAP
1 158_1 0.00053676
*RES
1 *159:Y 158_1 1.86
2 158_1 *158 0
*END
*D_NET *160 0.00051084
*CONN
*I *161:Y O *D BUFX2
*P *160 I
*CAP
1 160_1 0.00051084
*RES
1 *161:Y 160_1 1.92
2 160_1 *160 0
*END
*D_NET *162 0.00045792
*CONN
*I *163:Y O *D BUFX2
*P *162 I
*CAP
1 162_1 0.00045792
*RES
1 *163:Y 162_1 3.18
2 162_1 *162 0
*END
*D_NET *164 0.0006246
*CONN
*I *165:Y O *D BUFX2
*P *164 I
*CAP
1 164_1 0.0006246
*RES
1 *165:Y 164_1 2
2 164_1 *164 0
*END
*D_NET *166 0.00020736
*CONN
*I *167:Y O *D NAND2X1
*I *168:A I *L 0.0161375
*CAP
1 166_1 0.00020736
*RES
1 *167:Y 166_1 0.72
2 166_1 *168:A 0
*END
*D_NET *169 0.00045792
*CONN
*I *170:Y O *D BUFX2
*P *169 I
*CAP
1 169_1 0.00045792
*RES
1 *170:Y 169_1 3.18
2 169_1 *169 0
*END
*D_NET *171 0.00047088
*CONN
*I *172:Y O *D NOR2X1
*I *173:A I *L 0.0161217
*CAP
1 171_1 0.00047088
*RES
1 *172:Y 171_1 2.04
2 171_1 *173:A 0
*END
*D_NET *174 0.00020736
*CONN
*I *175:Y O *D INVX1
*I *176:A I *L 0.0214197
*CAP
1 174_1 0.00020736
*RES
1 *175:Y 174_1 0.72
2 174_1 *176:A 0
*END
*D_NET *177 0.00036864
*CONN
*I *178:Y O *D NAND2X1
*I *179:B I *L 0.0216455
*CAP
1 177_1 0.00036864
*RES
1 *178:Y 177_1 1.4
2 177_1 *179:B 0
*END
*D_NET *180 0.00078624
*CONN
*I *181:Y O *D NAND2X1
*I *182:B I *L 0.0216455
*CAP
1 180_1 0.00078624
*RES
1 *181:Y 180_1 2.94
2 180_1 *182:B 0
*END
*D_NET *183 0.00087696
*CONN
*I *184:Y O *D NOR2X1
*I *185:A I *L 0.0161217
*CAP
1 183_1 0.00087696
*RES
1 *184:Y 183_1 3.9
2 183_1 *185:A 0
*END
*D_NET *186 0.00110592
*CONN
*I *187:Y O *D INVX1
*I *188:A I *L 0.0214197
*CAP
1 186_1 0.00110592
*RES
1 *187:Y 186_1 6.66
2 186_1 *188:A 0
*END
*D_NET *189 0.00038016
*CONN
*I *190:Y O *D NAND2X1
*I *191:B I *L 0.0216455
*CAP
1 189_1 0.00038016
*RES
1 *190:Y 189_1 1.32
2 189_1 *191:B 0
*END
*D_NET *192 0.00100944
*CONN
*I *193:Y O *D NAND2X1
*I *194:A I *L 0.0161217
*CAP
1 192_1 0.00100944
*RES
1 *193:Y 192_1 5.08
2 192_1 *194:A 0
*END
*D_NET *195 0.00072144
*CONN
*I *196:Y O *D AND2X2
*I *197:B I *L 0.0216455
*CAP
1 195_1 0.00072144
*RES
1 *196:Y 195_1 3.12
2 195_1 *197:B 0
*END
*D_NET *198 0.00046224
*CONN
*I *199:Y O *D NOR2X1
*I *200:A I *L 0.0161217
*CAP
1 198_1 0.00046224
*RES
1 *199:Y 198_1 2.7
2 198_1 *200:A 0
*END
*D_NET *201 0.00013824
*CONN
*I *202:Y O *D INVX1
*I *203:A I *L 0.0214197
*CAP
1 201_1 0.00013824
*RES
1 *202:Y 201_1 0.48
2 201_1 *203:A 0
*END
*D_NET *204 0.00038016
*CONN
*I *205:Y O *D NAND2X1
*I *206:B I *L 0.0216455
*CAP
1 204_1 0.00038016
*RES
1 *205:Y 204_1 1.32
2 204_1 *206:B 0
*END
*D_NET *207 0.0003456
*CONN
*I *208:Y O *D NAND2X1
*I *209:A I *L 0.0161217
*CAP
1 207_1 0.0003456
*RES
1 *208:Y 207_1 1.38
2 207_1 *209:A 0
*END
*D_NET *210 0.00031104
*CONN
*I *211:Y O *D AND2X2
*I *212:B I *L 0.0216455
*CAP
1 210_1 0.00031104
*RES
1 *211:Y 210_1 1.08
2 210_1 *212:B 0
*END
*D_NET *213 0.00024624
*CONN
*I *214:Y O *D INVX1
*I *215:A I *L 0.0214197
*CAP
1 213_1 0.00024624
*RES
1 *214:Y 213_1 0.72
2 213_1 *215:A 0
*END
*D_NET *216 0.00040176
*CONN
*I *217:Y O *D NAND2X1
*I *218:B I *L 0.0216455
*CAP
1 216_1 0.00040176
*RES
1 *217:Y 216_1 1.56
2 216_1 *218:B 0
*END
*D_NET *219 0.00084528
*CONN
*I *220:Y O *D INVX1
*I *221:A I *L 0.0214197
*CAP
1 219_1 0.00084528
*RES
1 *220:Y 219_1 3.04
2 219_1 *221:A 0
*END
*D_NET *222 0.00038016
*CONN
*I *223:Y O *D NAND2X1
*I *224:B I *L 0.0216455
*CAP
1 222_1 0.00038016
*RES
1 *223:Y 222_1 1.32
2 222_1 *224:B 0
*END
*D_NET *225 0.00013824
*CONN
*I *226:Y O *D INVX1
*I *227:A I *L 0.0214197
*CAP
1 225_1 0.00013824
*RES
1 *226:Y 225_1 0.48
2 225_1 *227:A 0
*END
*D_NET *228 0.00068976
*CONN
*I *229:Y O *D NAND2X1
*I *230:B I *L 0.0216455
*CAP
1 228_1 0.00068976
*RES
1 *229:Y 228_1 3.22
2 228_1 *230:B 0
*END
*D_NET *231 0.00013824
*CONN
*I *232:Y O *D INVX1
*I *233:A I *L 0.0214197
*CAP
1 231_1 0.00013824
*RES
1 *232:Y 231_1 0.48
2 231_1 *233:A 0
*END
*D_NET *234 0.00058752
*CONN
*I *235:Y O *D NAND2X1
*I *236:B I *L 0.0216455
*CAP
1 234_1 0.00058752
*RES
1 *235:Y 234_1 2.04
2 234_1 *236:B 0
*END
*D_NET *237 0.00031104
*CONN
*I *238:Y O *D INVX1
*I *239:A I *L 0.0270218
*CAP
1 237_1 0.00031104
*RES
1 *238:Y 237_1 1.08
2 237_1 *239:A 0
*END
*D_NET *240 0.00031104
*CONN
*I *241:Y O *D INVX1
*I *242:B I *L 0.0276513
*CAP
1 240_1 0.00031104
*RES
1 *241:Y 240_1 1.08
2 240_1 *242:B 0
*END
