*SPEF "IEEE 1481.1999"
*DESIGN "dot"
*DATE "16:01:36 Sunday May 24, 2020"
*VENDOR "unknown"
*PROGRAM "qrouter"
*VERSION "unknown"
*DESIGN_FLOW "qflow"
*DIVIDER /
*DELIMITER :
*BUS_DELIMITER <>
*T_UNIT 1 PS
*C_UNIT 1 FF
*R_UNIT 1 OHM
*L_UNIT 1 HENRY

*NAME_MAP
*1 Ph
*2 AND2X2_1
*3 NAND2X1_1
*4 Gh
*5 INVX1_1
*6 _0_
*7 INVX1_1
*8 NAND2X1_2
*9 Gl
*10 NAND2X1_1
*11 _1_
*12 NAND2X1_1
*13 NAND2X1_2
*14 _2_
*15 NAND2X1_2
*16 BUFX2_1
*17 Pl
*18 AND2X2_1
*19 _3_
*20 AND2X2_1
*21 BUFX2_2
*22 Ghl
*23 BUFX2_1
*24 Phl
*25 BUFX2_2

*PORTS
*1 I
*4 I
*9 I
*17 I
*22 O
*24 O

*D_NET *1 0.00075744
*CONN
*P *1 O
*I *2:A I *L 0.021674
*I *3:B I *L 0.0216455
*CAP
1 1_1 0.0004464
2 1_2 4.32e-05
3 1_3 0.00026784
*RES
1 *1 1_1 2.42
2 1_1 1_2 0.3
3 1_2 *2:A 0
4 1_2 1_3 1.38
5 1_3 *3:B 0
*END
*D_NET *4 0.00070848
*CONN
*P *4 O
*I *5:A I *L 0.0161217
*CAP
1 4_1 0.00070848
*RES
1 *4 4_1 3.96
2 4_1 *5:A 0
*END
*D_NET *6 0.0003456
*CONN
*I *7:Y O *D INVX1
*I *8:A I *L 0.0214197
*CAP
1 6_1 0.0003456
*RES
1 *7:Y 6_1 1.2
2 6_1 *8:A 0
*END
*D_NET *9 0.0002592
*CONN
*P *9 O
*I *10:A I *L 0.0214197
*CAP
1 9_1 0.0002592
*RES
1 *9 9_1 1.8
2 9_1 *10:A 0
*END
*D_NET *11 0.00038016
*CONN
*I *12:Y O *D NAND2X1
*I *13:B I *L 0.0216455
*CAP
1 11_1 0.00038016
*RES
1 *12:Y 11_1 1.32
2 11_1 *13:B 0
*END
*D_NET *14 0.0004896
*CONN
*I *15:Y O *D NAND2X1
*I *16:A I *L 0.0161375
*CAP
1 14_1 0.0004896
*RES
1 *15:Y 14_1 1.52
2 14_1 *16:A 0
*END
*D_NET *17 0.0006606
*CONN
*P *17 O
*I *18:B I *L 0.0214177
*CAP
1 17_1 0.0006606
*RES
1 *17 17_1 2.08
2 17_1 *18:B 0
*END
*D_NET *19 0.0003456
*CONN
*I *20:Y O *D AND2X2
*I *21:A I *L 0.0161375
*CAP
1 19_1 0.0003456
*RES
1 *20:Y 19_1 1.2
2 19_1 *21:A 0
*END
*D_NET *22 0.0003294
*CONN
*I *23:Y O *D BUFX2
*P *22 I
*CAP
1 22_1 0.0003294
*RES
1 *23:Y 22_1 1.14
2 22_1 *22 0
*END
*D_NET *24 0.0004158
*CONN
*I *25:Y O *D BUFX2
*P *24 I
*CAP
1 24_1 0.0004158
*RES
1 *25:Y 24_1 1.74
2 24_1 *24 0
*END
