*SPEF "IEEE 1481.1999"
*DESIGN "in"
*DATE "16:16:08 Sunday May 24, 2020"
*VENDOR "unknown"
*PROGRAM "qrouter"
*VERSION "unknown"
*DESIGN_FLOW "qflow"
*DIVIDER /
*DELIMITER :
*BUS_DELIMITER <>
*T_UNIT 1 PS
*C_UNIT 1 FF
*R_UNIT 1 OHM
*L_UNIT 1 HENRY

*NAME_MAP
*1 y
*2 INVX1_1
*3 XOR2X1_1
*4 _0_
*5 INVX1_1
*6 NOR2X1_1
*7 NAND2X1_1
*8 x
*9 INVX1_2
*10 XOR2X1_1
*11 _1_
*12 INVX1_2
*13 NOR2X1_1
*14 NAND2X1_1
*15 _2_
*16 NOR2X1_1
*17 BUFX2_1
*18 g
*19 BUFX2_1
*20 _3_
*21 XOR2X1_1
*22 BUFX2_2
*23 h
*24 BUFX2_2
*25 _4_
*26 NAND2X1_1
*27 BUFX2_3
*28 p
*29 BUFX2_3

*PORTS
*1 I
*8 I
*18 O
*23 O
*28 O

*D_NET *1 0.0008136
*CONN
*P *1 O
*I *2:A I *L 0.0161217
*I *3:A I *L 0.0535547
*CAP
1 1_1 0.000216
2 1_2 4.32e-05
3 1_3 0.0005544
*RES
1 *1 1_1 1.5
2 1_1 1_2 0.3
3 1_2 *2:A 0
4 1_2 1_3 1.64
5 1_3 *3:A 0
*END
*D_NET *4 0.00054144
*CONN
*I *5:Y O *D INVX1
*I *6:A I *L 0.0270218
*I *7:A I *L 0.0214197
*CAP
1 4_1 0.00031104
2 4_2 0.0002304
*RES
1 *5:Y 4_1 1.08
2 4_1 *6:A 0
3 4_1 4_2 0.92
4 4_2 *7:A 0
*END
*D_NET *8 0.00123984
*CONN
*P *8 O
*I *9:A I *L 0.0161217
*I *10:B I *L 0.0637104
*CAP
1 8_1 0.00065232
2 8_2 0.00058752
*RES
1 *8 8_1 4.02
2 8_1 *9:A 0
3 8_1 8_2 2.04
4 8_2 *10:B 0
*END
*D_NET *11 0.00063504
*CONN
*I *12:Y O *D INVX1
*I *13:B I *L 0.0276513
*I *14:B I *L 0.0216455
*CAP
1 11_1 0.00040464
2 11_2 0
3 11_3 0.0002304
*RES
1 *12:Y 11_1 1.48
2 11_1 11_2 0
3 11_2 *13:B 0
4 11_1 11_3 0.92
5 11_3 *14:B 0
*END
*D_NET *15 0.00088992
*CONN
*I *16:Y O *D NOR2X1
*I *17:A I *L 0.0161375
*CAP
1 15_1 0.00088992
*RES
1 *16:Y 15_1 4.74
2 15_1 *17:A 0
*END
*D_NET *18 0.00068508
*CONN
*I *19:Y O *D BUFX2
*P *18 I
*CAP
1 18_1 0.00068508
*RES
1 *19:Y 18_1 3.44
2 18_1 *18 0
*END
*D_NET *20 0.00028224
*CONN
*I *21:Y O *D XOR2X1
*I *22:A I *L 0.0161375
*CAP
1 20_1 0.00028224
*RES
1 *21:Y 20_1 0.8
2 20_1 *22:A 0
*END
*D_NET *23 0.0003294
*CONN
*I *24:Y O *D BUFX2
*P *23 I
*CAP
1 23_1 0.0003294
*RES
1 *24:Y 23_1 1.14
2 23_1 *23 0
*END
*D_NET *25 0.0008208
*CONN
*I *26:Y O *D NAND2X1
*I *27:A I *L 0.0161375
*CAP
1 25_1 0.0008208
*RES
1 *26:Y 25_1 2.88
2 25_1 *27:A 0
*END
*D_NET *28 0.0003294
*CONN
*I *29:Y O *D BUFX2
*P *28 I
*CAP
1 28_1 0.0003294
*RES
1 *29:Y 28_1 1.14
2 28_1 *28 0
*END
